<?xml version="1.0" encoding="ISO-8859-1"?>
<febio_spec version="3.0">
	<Module type="solid"/>
	<Control>
		<analysis>STATIC</analysis>
		<time_steps>10</time_steps>
		<step_size>0.1</step_size>
		<solver>
			<max_refs>15</max_refs>
			<max_ups>10</max_ups>
			<diverge_reform>1</diverge_reform>
			<reform_each_time_step>1</reform_each_time_step>
			<dtol>0.001</dtol>
			<etol>0.01</etol>
			<rtol>0</rtol>
			<lstol>0.9</lstol>
			<min_residual>1e-20</min_residual>
			<qnmethod>BFGS</qnmethod>
			<rhoi>0</rhoi>
		</solver>
		<time_stepper>
			<dtmin>0.01</dtmin>
			<dtmax>0.1</dtmax>
			<max_retries>5</max_retries>
			<opt_iter>10</opt_iter>
		</time_stepper>
	</Control>
	<Globals>
		<Constants>
			<T>0</T>
			<R>0</R>
			<Fc>0</Fc>
		</Constants>
	</Globals>
	<Material>
		<material id="1" name="Material1" type="neo-Hookean">
			<density>1</density>
			<E>10</E>
			<v>0.3</v>
		</material>
	</Material>
	<Mesh>
		<Nodes name="Object01">
			<node id="1">563.026,431.432,0.0</node>
			<node id="2">665.778,421.16,0.0</node>
			<node id="3">773.494,418.687,0.0</node>
			<node id="4">549.784,530.538,0.0</node>
			<node id="5">660.69,525.739,0.0</node>
			<node id="6">766.237,522.293,0.0</node>
			<node id="7">553.946,631.9,0.0</node>
			<node id="8">660.603,628.822,0.0</node>
			<node id="9">762.482,626.836,0.0</node>
			<node id="10">563.026,431.432,30.0</node>
			<node id="11">665.778,421.16,30.0</node>
			<node id="12">773.494,418.687,30.0</node>
			<node id="13">549.784,530.538,30.0</node>
			<node id="14">660.69,525.739,30.0</node>
			<node id="15">766.237,522.293,30.0</node>
			<node id="16">553.946,631.9,30.0</node>
			<node id="17">660.603,628.822,30.0</node>
			<node id="18">762.482,626.836,30.0</node>
			<node id="19">526.199,390.971,0.0</node>
			<node id="20">652.779,307.85,0.0</node>
<!-- ... 816 like lines cut -->
		</Nodes>
		<Elements type="hex8" name="Part1">
			<elem id="1">1,35,267,63,44,237,621,257</elem>
			<elem id="2">35,36,268,267,237,238,622,621</elem>
			<elem id="3">36,37,269,268,238,239,623,622</elem>
			<elem id="4">37,2,45,269,239,38,243,623</elem>
			<elem id="5">63,267,264,62,257,621,624,256</elem>
			<elem id="6">267,268,265,264,621,622,625,624</elem>
			<elem id="7">268,269,266,265,622,623,626,625</elem>
			<elem id="8">269,45,46,266,623,243,244,626</elem>
			<elem id="9">62,264,261,61,256,624,627,255</elem>
			<elem id="10">264,265,262,261,624,625,628,627</elem>
			<elem id="11">265,266,263,262,625,626,629,628</elem>
			<elem id="12">266,46,47,263,626,244,245,629</elem>
			<elem id="13">61,261,55,4,255,627,251,56</elem>
			<elem id="14">261,262,54,55,627,628,250,251</elem>
			<elem id="15">262,263,53,54,628,629,249,250</elem>
			<elem id="16">263,47,5,53,629,245,48,249</elem>
			<elem id="17">44,237,621,257,43,240,630,260</elem>
			<elem id="18">237,238,622,621,240,241,631,630</elem>
			<elem id="19">238,239,623,622,241,242,632,631</elem>
			<elem id="20">239,38,243,623,242,39,246,632</elem>
<!-- ... 556 like lines cut -->
		</Elements>
		<NodeSet name="PrescribedDisplacement01_x">
			<n id="24"/>
			<n id="32"/>
			<n id="192"/>
			<n id="193"/>
		</NodeSet>
		<NodeSet name="PrescribedDisplacement01_y">
			<n id="24"/>
			<n id="32"/>
			<n id="192"/>
			<n id="193"/>
		</NodeSet>
		<NodeSet name="PrescribedDisplacement02_x">
			<n id="191"/>
			<n id="194"/>
			<n id="509"/>
			<n id="512"/>
		</NodeSet>
		<NodeSet name="PrescribedDisplacement02_y">
			<n id="191"/>
			<n id="194"/>
			<n id="509"/>
			<n id="512"/>
		</NodeSet>
		<NodeSet name="PrescribedDisplacement03_x">
			<n id="190"/>
			<n id="195"/>
			<n id="508"/>
			<n id="511"/>
		</NodeSet>
		<NodeSet name="PrescribedDisplacement03_y">
			<n id="190"/>
			<n id="195"/>
			<n id="508"/>
			<n id="511"/>
		</NodeSet>
		<NodeSet name="PrescribedDisplacement04_x">
			<n id="189"/>
			<n id="196"/>
			<n id="507"/>
			<n id="510"/>
		</NodeSet>
		<NodeSet name="PrescribedDisplacement04_y">
			<n id="189"/>
			<n id="196"/>
			<n id="507"/>
			<n id="510"/>
		</NodeSet>
		<NodeSet name="PrescribedDisplacement05_x">
			<n id="23"/>
			<n id="31"/>
			<n id="178"/>
			<n id="179"/>
		</NodeSet>
		<NodeSet name="PrescribedDisplacement05_y">
			<n id="23"/>
			<n id="31"/>
			<n id="178"/>
			<n id="179"/>
		</NodeSet>
		<NodeSet name="PrescribedDisplacement06_x">
			<n id="177"/>
			<n id="180"/>
			<n id="479"/>
			<n id="482"/>
		</NodeSet>
		<NodeSet name="PrescribedDisplacement06_y">
			<n id="177"/>
			<n id="180"/>
			<n id="479"/>
			<n id="482"/>
		</NodeSet>
		<NodeSet name="PrescribedDisplacement07_x">
			<n id="176"/>
			<n id="181"/>
			<n id="478"/>
			<n id="481"/>
		</NodeSet>
		<NodeSet name="PrescribedDisplacement07_y">
			<n id="176"/>
			<n id="181"/>
			<n id="478"/>
			<n id="481"/>
		</NodeSet>
		<NodeSet name="PrescribedDisplacement08_x">
			<n id="175"/>
			<n id="182"/>
			<n id="477"/>
			<n id="480"/>
		</NodeSet>
		<NodeSet name="PrescribedDisplacement08_y">
			<n id="175"/>
			<n id="182"/>
			<n id="477"/>
			<n id="480"/>
		</NodeSet>
		<NodeSet name="PrescribedDisplacement09_x">
			<n id="22"/>
			<n id="30"/>
			<n id="164"/>
			<n id="165"/>
		</NodeSet>
		<NodeSet name="PrescribedDisplacement09_y">
			<n id="22"/>
			<n id="30"/>
			<n id="164"/>
			<n id="165"/>
		</NodeSet>
		<NodeSet name="PrescribedDisplacement10_x">
			<n id="163"/>
			<n id="166"/>
			<n id="449"/>
			<n id="452"/>
		</NodeSet>
		<NodeSet name="PrescribedDisplacement10_y">
			<n id="163"/>
			<n id="166"/>
			<n id="449"/>
			<n id="452"/>
		</NodeSet>
		<NodeSet name="PrescribedDisplacement11_x">
			<n id="162"/>
			<n id="167"/>
			<n id="448"/>
			<n id="451"/>
		</NodeSet>
		<NodeSet name="PrescribedDisplacement11_y">
			<n id="162"/>
			<n id="167"/>
			<n id="448"/>
			<n id="451"/>
		</NodeSet>
		<NodeSet name="PrescribedDisplacement12_x">
			<n id="161"/>
			<n id="168"/>
			<n id="447"/>
			<n id="450"/>
		</NodeSet>
		<NodeSet name="PrescribedDisplacement12_y">
			<n id="161"/>
			<n id="168"/>
			<n id="447"/>
			<n id="450"/>
		</NodeSet>
		<NodeSet name="PrescribedDisplacement13_x">
			<n id="21"/>
			<n id="29"/>
			<n id="150"/>
			<n id="151"/>
		</NodeSet>
		<NodeSet name="PrescribedDisplacement13_y">
			<n id="21"/>
			<n id="29"/>
			<n id="150"/>
			<n id="151"/>
		</NodeSet>
		<NodeSet name="PrescribedDisplacement14_x">
			<n id="149"/>
			<n id="152"/>
			<n id="419"/>
			<n id="422"/>
		</NodeSet>
		<NodeSet name="PrescribedDisplacement14_y">
			<n id="149"/>
			<n id="152"/>
			<n id="419"/>
			<n id="422"/>
		</NodeSet>
		<NodeSet name="PrescribedDisplacement15_x">
			<n id="148"/>
			<n id="153"/>
			<n id="418"/>
			<n id="421"/>
		</NodeSet>
		<NodeSet name="PrescribedDisplacement15_y">
			<n id="148"/>
			<n id="153"/>
			<n id="418"/>
			<n id="421"/>
		</NodeSet>
		<NodeSet name="PrescribedDisplacement16_x">
			<n id="147"/>
			<n id="154"/>
			<n id="417"/>
			<n id="420"/>
		</NodeSet>
		<NodeSet name="PrescribedDisplacement16_y">
			<n id="147"/>
			<n id="154"/>
			<n id="417"/>
			<n id="420"/>
		</NodeSet>
		<NodeSet name="PrescribedDisplacement17_x">
			<n id="20"/>
			<n id="28"/>
			<n id="136"/>
			<n id="137"/>
		</NodeSet>
		<NodeSet name="PrescribedDisplacement17_y">
			<n id="20"/>
			<n id="28"/>
			<n id="136"/>
			<n id="137"/>
		</NodeSet>
		<NodeSet name="PrescribedDisplacement18_x">
			<n id="135"/>
			<n id="138"/>
			<n id="389"/>
			<n id="392"/>
		</NodeSet>
		<NodeSet name="PrescribedDisplacement18_y">
			<n id="135"/>
			<n id="138"/>
			<n id="389"/>
			<n id="392"/>
		</NodeSet>
		<NodeSet name="PrescribedDisplacement19_x">
			<n id="134"/>
			<n id="139"/>
			<n id="388"/>
			<n id="391"/>
		</NodeSet>
		<NodeSet name="PrescribedDisplacement19_y">
			<n id="134"/>
			<n id="139"/>
			<n id="388"/>
			<n id="391"/>
		</NodeSet>
		<NodeSet name="PrescribedDisplacement20_x">
			<n id="133"/>
			<n id="140"/>
			<n id="387"/>
			<n id="390"/>
		</NodeSet>
		<NodeSet name="PrescribedDisplacement20_y">
			<n id="133"/>
			<n id="140"/>
			<n id="387"/>
			<n id="390"/>
		</NodeSet>
		<NodeSet name="PrescribedDisplacement21_x">
			<n id="19"/>
			<n id="27"/>
			<n id="128"/>
			<n id="129"/>
		</NodeSet>
		<NodeSet name="PrescribedDisplacement21_y">
			<n id="19"/>
			<n id="27"/>
			<n id="128"/>
			<n id="129"/>
		</NodeSet>
		<NodeSet name="PrescribedDisplacement22_x">
			<n id="233"/>
			<n id="234"/>
			<n id="599"/>
			<n id="602"/>
		</NodeSet>
		<NodeSet name="PrescribedDisplacement22_y">
			<n id="233"/>
			<n id="234"/>
			<n id="599"/>
			<n id="602"/>
		</NodeSet>
		<NodeSet name="PrescribedDisplacement23_x">
			<n id="232"/>
			<n id="235"/>
			<n id="598"/>
			<n id="601"/>
		</NodeSet>
		<NodeSet name="PrescribedDisplacement23_y">
			<n id="232"/>
			<n id="235"/>
			<n id="598"/>
			<n id="601"/>
		</NodeSet>
		<NodeSet name="PrescribedDisplacement24_x">
			<n id="231"/>
			<n id="236"/>
			<n id="597"/>
			<n id="600"/>
		</NodeSet>
		<NodeSet name="PrescribedDisplacement24_y">
			<n id="231"/>
			<n id="236"/>
			<n id="597"/>
			<n id="600"/>
		</NodeSet>
		<NodeSet name="PrescribedDisplacement25_x">
			<n id="26"/>
			<n id="34"/>
			<n id="220"/>
			<n id="221"/>
		</NodeSet>
		<NodeSet name="PrescribedDisplacement25_y">
			<n id="26"/>
			<n id="34"/>
			<n id="220"/>
			<n id="221"/>
		</NodeSet>
		<NodeSet name="PrescribedDisplacement26_x">
			<n id="219"/>
			<n id="222"/>
			<n id="569"/>
			<n id="572"/>
		</NodeSet>
		<NodeSet name="PrescribedDisplacement26_y">
			<n id="219"/>
			<n id="222"/>
			<n id="569"/>
			<n id="572"/>
		</NodeSet>
		<NodeSet name="PrescribedDisplacement27_x">
			<n id="218"/>
			<n id="223"/>
			<n id="568"/>
			<n id="571"/>
		</NodeSet>
		<NodeSet name="PrescribedDisplacement27_y">
			<n id="218"/>
			<n id="223"/>
			<n id="568"/>
			<n id="571"/>
		</NodeSet>
		<NodeSet name="PrescribedDisplacement28_x">
			<n id="217"/>
			<n id="224"/>
			<n id="567"/>
			<n id="570"/>
		</NodeSet>
		<NodeSet name="PrescribedDisplacement28_y">
			<n id="217"/>
			<n id="224"/>
			<n id="567"/>
			<n id="570"/>
		</NodeSet>
		<NodeSet name="PrescribedDisplacement29_x">
			<n id="25"/>
			<n id="33"/>
			<n id="206"/>
			<n id="207"/>
		</NodeSet>
		<NodeSet name="PrescribedDisplacement29_y">
			<n id="25"/>
			<n id="33"/>
			<n id="206"/>
			<n id="207"/>
		</NodeSet>
		<NodeSet name="PrescribedDisplacement30_x">
			<n id="205"/>
			<n id="208"/>
			<n id="539"/>
			<n id="542"/>
		</NodeSet>
		<NodeSet name="PrescribedDisplacement30_y">
			<n id="205"/>
			<n id="208"/>
			<n id="539"/>
			<n id="542"/>
		</NodeSet>
		<NodeSet name="PrescribedDisplacement31_x">
			<n id="204"/>
			<n id="209"/>
			<n id="538"/>
			<n id="541"/>
		</NodeSet>
		<NodeSet name="PrescribedDisplacement31_y">
			<n id="204"/>
			<n id="209"/>
			<n id="538"/>
			<n id="541"/>
		</NodeSet>
		<NodeSet name="PrescribedDisplacement32_x">
			<n id="203"/>
			<n id="210"/>
			<n id="537"/>
			<n id="540"/>
		</NodeSet>
		<NodeSet name="PrescribedDisplacement32_y">
			<n id="203"/>
			<n id="210"/>
			<n id="537"/>
			<n id="540"/>
		</NodeSet>
	</Mesh>
	<MeshDomains>
		<SolidDomain name="Part1" mat="Material1"/>
	</MeshDomains>
	<Boundary>
		<bc name="PrescribedDisplacement01_x" type="prescribe" node_set="PrescribedDisplacement01_x">
			<dof>x</dof>
			<scale lc="1">-35.66056850000007</scale>
			<relative>0</relative>
		</bc>
		<bc name="PrescribedDisplacement01_y" type="prescribe" node_set="PrescribedDisplacement01_y">
			<dof>y</dof>
			<scale lc="2">226.94622900000002</scale>
			<relative>0</relative>
		</bc>
		<bc name="PrescribedDisplacement02_x" type="prescribe" node_set="PrescribedDisplacement02_x">
			<dof>x</dof>
			<scale lc="3">61.31044250000002</scale>
			<relative>0</relative>
		</bc>
		<bc name="PrescribedDisplacement02_y" type="prescribe" node_set="PrescribedDisplacement02_y">
			<dof>y</dof>
			<scale lc="4">233.152694</scale>
			<relative>0</relative>
		</bc>
		<bc name="PrescribedDisplacement03_x" type="prescribe" node_set="PrescribedDisplacement03_x">
			<dof>x</dof>
			<scale lc="5">132.86717550000003</scale>
			<relative>0</relative>
		</bc>
		<bc name="PrescribedDisplacement03_y" type="prescribe" node_set="PrescribedDisplacement03_y">
			<dof>y</dof>
			<scale lc="6">198.1937335</scale>
			<relative>0</relative>
		</bc>
		<bc name="PrescribedDisplacement04_x" type="prescribe" node_set="PrescribedDisplacement04_x">
			<dof>x</dof>
			<scale lc="7">179.80345799999998</scale>
			<relative>0</relative>
		</bc>
		<bc name="PrescribedDisplacement04_y" type="prescribe" node_set="PrescribedDisplacement04_y">
			<dof>y</dof>
			<scale lc="8">142.05753900000002</scale>
			<relative>0</relative>
		</bc>
		<bc name="PrescribedDisplacement05_x" type="prescribe" node_set="PrescribedDisplacement05_x">
			<dof>x</dof>
			<scale lc="9">217.9565490000001</scale>
			<relative>0</relative>
		</bc>
		<bc name="PrescribedDisplacement05_y" type="prescribe" node_set="PrescribedDisplacement05_y">
			<dof>y</dof>
			<scale lc="10">118.27620300000001</scale>
			<relative>0</relative>
		</bc>
		<bc name="PrescribedDisplacement06_x" type="prescribe" node_set="PrescribedDisplacement06_x">
			<dof>x</dof>
			<scale lc="11">244.64398800000015</scale>
			<relative>0</relative>
		</bc>
		<bc name="PrescribedDisplacement06_y" type="prescribe" node_set="PrescribedDisplacement06_y">
			<dof>y</dof>
			<scale lc="12">108.52867400000002</scale>
			<relative>0</relative>
		</bc>
		<bc name="PrescribedDisplacement07_x" type="prescribe" node_set="PrescribedDisplacement07_x">
			<dof>x</dof>
			<scale lc="13">268.4174764999998</scale>
			<relative>0</relative>
		</bc>
		<bc name="PrescribedDisplacement07_y" type="prescribe" node_set="PrescribedDisplacement07_y">
			<dof>y</dof>
			<scale lc="14">89.71569599999998</scale>
			<relative>0</relative>
		</bc>
		<bc name="PrescribedDisplacement08_x" type="prescribe" node_set="PrescribedDisplacement08_x">
			<dof>x</dof>
			<scale lc="15">282.2462314999999</scale>
			<relative>0</relative>
		</bc>
		<bc name="PrescribedDisplacement08_y" type="prescribe" node_set="PrescribedDisplacement08_y">
			<dof>y</dof>
			<scale lc="16">45.082929000000036</scale>
			<relative>0</relative>
		</bc>
		<bc name="PrescribedDisplacement09_x" type="prescribe" node_set="PrescribedDisplacement09_x">
			<dof>x</dof>
			<scale lc="17">264.4611535</scale>
			<relative>0</relative>
		</bc>
		<bc name="PrescribedDisplacement09_y" type="prescribe" node_set="PrescribedDisplacement09_y">
			<dof>y</dof>
			<scale lc="18">-33.891185500000006</scale>
			<relative>0</relative>
		</bc>
		<bc name="PrescribedDisplacement10_x" type="prescribe" node_set="PrescribedDisplacement10_x">
			<dof>x</dof>
			<scale lc="19">243.1287995</scale>
			<relative>0</relative>
		</bc>
		<bc name="PrescribedDisplacement10_y" type="prescribe" node_set="PrescribedDisplacement10_y">
			<dof>y</dof>
			<scale lc="20">-106.04703849999999</scale>
			<relative>0</relative>
		</bc>
		<bc name="PrescribedDisplacement11_x" type="prescribe" node_set="PrescribedDisplacement11_x">
			<dof>x</dof>
			<scale lc="21">220.01660949999996</scale>
			<relative>0</relative>
		</bc>
		<bc name="PrescribedDisplacement11_y" type="prescribe" node_set="PrescribedDisplacement11_y">
			<dof>y</dof>
			<scale lc="22">-152.10387349999996</scale>
			<relative>0</relative>
		</bc>
		<bc name="PrescribedDisplacement12_x" type="prescribe" node_set="PrescribedDisplacement12_x">
			<dof>x</dof>
			<scale lc="23">192.53003350000017</scale>
			<relative>0</relative>
		</bc>
		<bc name="PrescribedDisplacement12_y" type="prescribe" node_set="PrescribedDisplacement12_y">
			<dof>y</dof>
			<scale lc="24">-181.40790850000002</scale>
			<relative>0</relative>
		</bc>
		<bc name="PrescribedDisplacement13_x" type="prescribe" node_set="PrescribedDisplacement13_x">
			<dof>x</dof>
			<scale lc="25">165.903777</scale>
			<relative>0</relative>
		</bc>
		<bc name="PrescribedDisplacement13_y" type="prescribe" node_set="PrescribedDisplacement13_y">
			<dof>y</dof>
			<scale lc="26">-204.43435400000004</scale>
			<relative>0</relative>
		</bc>
		<bc name="PrescribedDisplacement14_x" type="prescribe" node_set="PrescribedDisplacement14_x">
			<dof>x</dof>
			<scale lc="27">152.10815649999995</scale>
			<relative>0</relative>
		</bc>
		<bc name="PrescribedDisplacement14_y" type="prescribe" node_set="PrescribedDisplacement14_y">
			<dof>y</dof>
			<scale lc="28">-215.633598</scale>
			<relative>0</relative>
		</bc>
		<bc name="PrescribedDisplacement15_x" type="prescribe" node_set="PrescribedDisplacement15_x">
			<dof>x</dof>
			<scale lc="29">152.14076899999998</scale>
			<relative>0</relative>
		</bc>
		<bc name="PrescribedDisplacement15_y" type="prescribe" node_set="PrescribedDisplacement15_y">
			<dof>y</dof>
			<scale lc="30">-211.5182215</scale>
			<relative>0</relative>
		</bc>
		<bc name="PrescribedDisplacement16_x" type="prescribe" node_set="PrescribedDisplacement16_x">
			<dof>x</dof>
			<scale lc="31">128.75987149999992</scale>
			<relative>0</relative>
		</bc>
		<bc name="PrescribedDisplacement16_y" type="prescribe" node_set="PrescribedDisplacement16_y">
			<dof>y</dof>
			<scale lc="32">-205.36853100000002</scale>
			<relative>0</relative>
		</bc>
		<bc name="PrescribedDisplacement17_x" type="prescribe" node_set="PrescribedDisplacement17_x">
			<dof>x</dof>
			<scale lc="33">59.80640100000005</scale>
			<relative>0</relative>
		</bc>
		<bc name="PrescribedDisplacement17_y" type="prescribe" node_set="PrescribedDisplacement17_y">
			<dof>y</dof>
			<scale lc="34">-211.82016450000003</scale>
			<relative>0</relative>
		</bc>
		<bc name="PrescribedDisplacement18_x" type="prescribe" node_set="PrescribedDisplacement18_x">
			<dof>x</dof>
			<scale lc="35">-16.23103100000003</scale>
			<relative>0</relative>
		</bc>
		<bc name="PrescribedDisplacement18_y" type="prescribe" node_set="PrescribedDisplacement18_y">
			<dof>y</dof>
			<scale lc="36">-224.61870850000003</scale>
			<relative>0</relative>
		</bc>
		<bc name="PrescribedDisplacement19_x" type="prescribe" node_set="PrescribedDisplacement19_x">
			<dof>x</dof>
			<scale lc="37">-82.59664099999998</scale>
			<relative>0</relative>
		</bc>
		<bc name="PrescribedDisplacement19_y" type="prescribe" node_set="PrescribedDisplacement19_y">
			<dof>y</dof>
			<scale lc="38">-233.8039855</scale>
			<relative>0</relative>
		</bc>
		<bc name="PrescribedDisplacement20_x" type="prescribe" node_set="PrescribedDisplacement20_x">
			<dof>x</dof>
			<scale lc="39">-132.00051800000006</scale>
			<relative>0</relative>
		</bc>
		<bc name="PrescribedDisplacement20_y" type="prescribe" node_set="PrescribedDisplacement20_y">
			<dof>y</dof>
			<scale lc="40">-229.80084899999997</scale>
			<relative>0</relative>
		</bc>
		<bc name="PrescribedDisplacement21_x" type="prescribe" node_set="PrescribedDisplacement21_x">
			<dof>x</dof>
			<scale lc="41">-163.33341500000006</scale>
			<relative>0</relative>
		</bc>
		<bc name="PrescribedDisplacement21_y" type="prescribe" node_set="PrescribedDisplacement21_y">
			<dof>y</dof>
			<scale lc="42">-210.23701650000004</scale>
			<relative>0</relative>
		</bc>
		<bc name="PrescribedDisplacement22_x" type="prescribe" node_set="PrescribedDisplacement22_x">
			<dof>x</dof>
			<scale lc="43">-180.71585799999997</scale>
			<relative>0</relative>
		</bc>
		<bc name="PrescribedDisplacement22_y" type="prescribe" node_set="PrescribedDisplacement22_y">
			<dof>y</dof>
			<scale lc="44">-174.6849055</scale>
			<relative>0</relative>
		</bc>
		<bc name="PrescribedDisplacement23_x" type="prescribe" node_set="PrescribedDisplacement23_x">
			<dof>x</dof>
			<scale lc="45">-186.81885850000003</scale>
			<relative>0</relative>
		</bc>
		<bc name="PrescribedDisplacement23_y" type="prescribe" node_set="PrescribedDisplacement23_y">
			<dof>y</dof>
			<scale lc="46">-120.05703299999999</scale>
			<relative>0</relative>
		</bc>
		<bc name="PrescribedDisplacement24_x" type="prescribe" node_set="PrescribedDisplacement24_x">
			<dof>x</dof>
			<scale lc="47">-192.64133550000003</scale>
			<relative>0</relative>
		</bc>
		<bc name="PrescribedDisplacement24_y" type="prescribe" node_set="PrescribedDisplacement24_y">
			<dof>y</dof>
			<scale lc="48">-57.03700250000003</scale>
			<relative>0</relative>
		</bc>
		<bc name="PrescribedDisplacement25_x" type="prescribe" node_set="PrescribedDisplacement25_x">
			<dof>x</dof>
			<scale lc="49">-209.18754850000002</scale>
			<relative>0</relative>
		</bc>
		<bc name="PrescribedDisplacement25_y" type="prescribe" node_set="PrescribedDisplacement25_y">
			<dof>y</dof>
			<scale lc="50">-15.21788349999997</scale>
			<relative>0</relative>
		</bc>
		<bc name="PrescribedDisplacement26_x" type="prescribe" node_set="PrescribedDisplacement26_x">
			<dof>x</dof>
			<scale lc="51">-226.28195749999998</scale>
			<relative>0</relative>
		</bc>
		<bc name="PrescribedDisplacement26_y" type="prescribe" node_set="PrescribedDisplacement26_y">
			<dof>y</dof>
			<scale lc="52">7.048090999999999</scale>
			<relative>0</relative>
		</bc>
		<bc name="PrescribedDisplacement27_x" type="prescribe" node_set="PrescribedDisplacement27_x">
			<dof>x</dof>
			<scale lc="53">-234.249209</scale>
			<relative>0</relative>
		</bc>
		<bc name="PrescribedDisplacement27_y" type="prescribe" node_set="PrescribedDisplacement27_y">
			<dof>y</dof>
			<scale lc="54">43.04624249999995</scale>
			<relative>0</relative>
		</bc>
		<bc name="PrescribedDisplacement28_x" type="prescribe" node_set="PrescribedDisplacement28_x">
			<dof>x</dof>
			<scale lc="55">-215.32878899999997</scale>
			<relative>0</relative>
		</bc>
		<bc name="PrescribedDisplacement28_y" type="prescribe" node_set="PrescribedDisplacement28_y">
			<dof>y</dof>
			<scale lc="56">98.55935099999999</scale>
			<relative>0</relative>
		</bc>
		<bc name="PrescribedDisplacement29_x" type="prescribe" node_set="PrescribedDisplacement29_x">
			<dof>x</dof>
			<scale lc="57">-178.2925590000001</scale>
			<relative>0</relative>
		</bc>
		<bc name="PrescribedDisplacement29_y" type="prescribe" node_set="PrescribedDisplacement29_y">
			<dof>y</dof>
			<scale lc="58">145.80453449999993</scale>
			<relative>0</relative>
		</bc>
		<bc name="PrescribedDisplacement30_x" type="prescribe" node_set="PrescribedDisplacement30_x">
			<dof>x</dof>
			<scale lc="59">-150.0192085</scale>
			<relative>0</relative>
		</bc>
		<bc name="PrescribedDisplacement30_y" type="prescribe" node_set="PrescribedDisplacement30_y">
			<dof>y</dof>
			<scale lc="60">175.69213849999994</scale>
			<relative>0</relative>
		</bc>
		<bc name="PrescribedDisplacement31_x" type="prescribe" node_set="PrescribedDisplacement31_x">
			<dof>x</dof>
			<scale lc="61">-126.35573550000004</scale>
			<relative>0</relative>
		</bc>
		<bc name="PrescribedDisplacement31_y" type="prescribe" node_set="PrescribedDisplacement31_y">
			<dof>y</dof>
			<scale lc="62">195.6003925</scale>
			<relative>0</relative>
		</bc>
		<bc name="PrescribedDisplacement32_x" type="prescribe" node_set="PrescribedDisplacement32_x">
			<dof>x</dof>
			<scale lc="63">-94.72604899999999</scale>
			<relative>0</relative>
		</bc>
		<bc name="PrescribedDisplacement32_y" type="prescribe" node_set="PrescribedDisplacement32_y">
			<dof>y</dof>
			<scale lc="64">211.8768120000001</scale>
			<relative>0</relative>
		</bc>
	</Boundary>
	<LoadData>
		<load_controller id="1" type="loadcurve">
			<interpolate>SMOOTH</interpolate>
			<points>
				<point>0,0</point>
				<point>1,1</point>
			</points>
		</load_controller>
		<load_controller id="2" type="loadcurve">
			<interpolate>SMOOTH</interpolate>
			<points>
				<point>0,0</point>
				<point>1,1</point>
			</points>
		</load_controller>
		<load_controller id="3" type="loadcurve">
			<interpolate>SMOOTH</interpolate>
			<points>
				<point>0,0</point>
				<point>1,1</point>
			</points>
		</load_controller>
		<load_controller id="4" type="loadcurve">
			<interpolate>SMOOTH</interpolate>
			<points>
				<point>0,0</point>
				<point>1,1</point>
			</points>
		</load_controller>
		<load_controller id="5" type="loadcurve">
			<interpolate>SMOOTH</interpolate>
			<points>
				<point>0,0</point>
				<point>1,1</point>
			</points>
		</load_controller>
		<load_controller id="6" type="loadcurve">
			<interpolate>SMOOTH</interpolate>
			<points>
				<point>0,0</point>
				<point>1,1</point>
			</points>
		</load_controller>
		<load_controller id="7" type="loadcurve">
			<interpolate>SMOOTH</interpolate>
			<points>
				<point>0,0</point>
				<point>1,1</point>
			</points>
		</load_controller>
		<load_controller id="8" type="loadcurve">
			<interpolate>SMOOTH</interpolate>
			<points>
				<point>0,0</point>
				<point>1,1</point>
			</points>
		</load_controller>
		<load_controller id="9" type="loadcurve">
			<interpolate>SMOOTH</interpolate>
			<points>
				<point>0,0</point>
				<point>1,1</point>
			</points>
		</load_controller>
		<load_controller id="10" type="loadcurve">
			<interpolate>SMOOTH</interpolate>
			<points>
				<point>0,0</point>
				<point>1,1</point>
			</points>
		</load_controller>
		<load_controller id="11" type="loadcurve">
			<interpolate>SMOOTH</interpolate>
			<points>
				<point>0,0</point>
				<point>1,1</point>
			</points>
		</load_controller>
		<load_controller id="12" type="loadcurve">
			<interpolate>SMOOTH</interpolate>
			<points>
				<point>0,0</point>
				<point>1,1</point>
			</points>
		</load_controller>
		<load_controller id="13" type="loadcurve">
			<interpolate>SMOOTH</interpolate>
			<points>
				<point>0,0</point>
				<point>1,1</point>
			</points>
		</load_controller>
		<load_controller id="14" type="loadcurve">
			<interpolate>SMOOTH</interpolate>
			<points>
				<point>0,0</point>
				<point>1,1</point>
			</points>
		</load_controller>
		<load_controller id="15" type="loadcurve">
			<interpolate>SMOOTH</interpolate>
			<points>
				<point>0,0</point>
				<point>1,1</point>
			</points>
		</load_controller>
		<load_controller id="16" type="loadcurve">
			<interpolate>SMOOTH</interpolate>
			<points>
				<point>0,0</point>
				<point>1,1</point>
			</points>
		</load_controller>
		<load_controller id="17" type="loadcurve">
			<interpolate>SMOOTH</interpolate>
			<points>
				<point>0,0</point>
				<point>1,1</point>
			</points>
		</load_controller>
		<load_controller id="18" type="loadcurve">
			<interpolate>SMOOTH</interpolate>
			<points>
				<point>0,0</point>
				<point>1,1</point>
			</points>
		</load_controller>
		<load_controller id="19" type="loadcurve">
			<interpolate>SMOOTH</interpolate>
			<points>
				<point>0,0</point>
				<point>1,1</point>
			</points>
		</load_controller>
		<load_controller id="20" type="loadcurve">
			<interpolate>SMOOTH</interpolate>
			<points>
				<point>0,0</point>
				<point>1,1</point>
			</points>
		</load_controller>
		<load_controller id="21" type="loadcurve">
			<interpolate>SMOOTH</interpolate>
			<points>
				<point>0,0</point>
				<point>1,1</point>
			</points>
		</load_controller>
		<load_controller id="22" type="loadcurve">
			<interpolate>SMOOTH</interpolate>
			<points>
				<point>0,0</point>
				<point>1,1</point>
			</points>
		</load_controller>
		<load_controller id="23" type="loadcurve">
			<interpolate>SMOOTH</interpolate>
			<points>
				<point>0,0</point>
				<point>1,1</point>
			</points>
		</load_controller>
		<load_controller id="24" type="loadcurve">
			<interpolate>SMOOTH</interpolate>
			<points>
				<point>0,0</point>
				<point>1,1</point>
			</points>
		</load_controller>
		<load_controller id="25" type="loadcurve">
			<interpolate>SMOOTH</interpolate>
			<points>
				<point>0,0</point>
				<point>1,1</point>
			</points>
		</load_controller>
		<load_controller id="26" type="loadcurve">
			<interpolate>SMOOTH</interpolate>
			<points>
				<point>0,0</point>
				<point>1,1</point>
			</points>
		</load_controller>
		<load_controller id="27" type="loadcurve">
			<interpolate>SMOOTH</interpolate>
			<points>
				<point>0,0</point>
				<point>1,1</point>
			</points>
		</load_controller>
		<load_controller id="28" type="loadcurve">
			<interpolate>SMOOTH</interpolate>
			<points>
				<point>0,0</point>
				<point>1,1</point>
			</points>
		</load_controller>
		<load_controller id="29" type="loadcurve">
			<interpolate>SMOOTH</interpolate>
			<points>
				<point>0,0</point>
				<point>1,1</point>
			</points>
		</load_controller>
		<load_controller id="30" type="loadcurve">
			<interpolate>SMOOTH</interpolate>
			<points>
				<point>0,0</point>
				<point>1,1</point>
			</points>
		</load_controller>
		<load_controller id="31" type="loadcurve">
			<interpolate>SMOOTH</interpolate>
			<points>
				<point>0,0</point>
				<point>1,1</point>
			</points>
		</load_controller>
		<load_controller id="32" type="loadcurve">
			<interpolate>SMOOTH</interpolate>
			<points>
				<point>0,0</point>
				<point>1,1</point>
			</points>
		</load_controller>
		<load_controller id="33" type="loadcurve">
			<interpolate>SMOOTH</interpolate>
			<points>
				<point>0,0</point>
				<point>1,1</point>
			</points>
		</load_controller>
		<load_controller id="34" type="loadcurve">
			<interpolate>SMOOTH</interpolate>
			<points>
				<point>0,0</point>
				<point>1,1</point>
			</points>
		</load_controller>
		<load_controller id="35" type="loadcurve">
			<interpolate>SMOOTH</interpolate>
			<points>
				<point>0,0</point>
				<point>1,1</point>
			</points>
		</load_controller>
		<load_controller id="36" type="loadcurve">
			<interpolate>SMOOTH</interpolate>
			<points>
				<point>0,0</point>
				<point>1,1</point>
			</points>
		</load_controller>
		<load_controller id="37" type="loadcurve">
			<interpolate>SMOOTH</interpolate>
			<points>
				<point>0,0</point>
				<point>1,1</point>
			</points>
		</load_controller>
		<load_controller id="38" type="loadcurve">
			<interpolate>SMOOTH</interpolate>
			<points>
				<point>0,0</point>
				<point>1,1</point>
			</points>
		</load_controller>
		<load_controller id="39" type="loadcurve">
			<interpolate>SMOOTH</interpolate>
			<points>
				<point>0,0</point>
				<point>1,1</point>
			</points>
		</load_controller>
		<load_controller id="40" type="loadcurve">
			<interpolate>SMOOTH</interpolate>
			<points>
				<point>0,0</point>
				<point>1,1</point>
			</points>
		</load_controller>
		<load_controller id="41" type="loadcurve">
			<interpolate>SMOOTH</interpolate>
			<points>
				<point>0,0</point>
				<point>1,1</point>
			</points>
		</load_controller>
		<load_controller id="42" type="loadcurve">
			<interpolate>SMOOTH</interpolate>
			<points>
				<point>0,0</point>
				<point>1,1</point>
			</points>
		</load_controller>
		<load_controller id="43" type="loadcurve">
			<interpolate>SMOOTH</interpolate>
			<points>
				<point>0,0</point>
				<point>1,1</point>
			</points>
		</load_controller>
		<load_controller id="44" type="loadcurve">
			<interpolate>SMOOTH</interpolate>
			<points>
				<point>0,0</point>
				<point>1,1</point>
			</points>
		</load_controller>
		<load_controller id="45" type="loadcurve">
			<interpolate>SMOOTH</interpolate>
			<points>
				<point>0,0</point>
				<point>1,1</point>
			</points>
		</load_controller>
		<load_controller id="46" type="loadcurve">
			<interpolate>SMOOTH</interpolate>
			<points>
				<point>0,0</point>
				<point>1,1</point>
			</points>
		</load_controller>
		<load_controller id="47" type="loadcurve">
			<interpolate>SMOOTH</interpolate>
			<points>
				<point>0,0</point>
				<point>1,1</point>
			</points>
		</load_controller>
		<load_controller id="48" type="loadcurve">
			<interpolate>SMOOTH</interpolate>
			<points>
				<point>0,0</point>
				<point>1,1</point>
			</points>
		</load_controller>
		<load_controller id="49" type="loadcurve">
			<interpolate>SMOOTH</interpolate>
			<points>
				<point>0,0</point>
				<point>1,1</point>
			</points>
		</load_controller>
		<load_controller id="50" type="loadcurve">
			<interpolate>SMOOTH</interpolate>
			<points>
				<point>0,0</point>
				<point>1,1</point>
			</points>
		</load_controller>
		<load_controller id="51" type="loadcurve">
			<interpolate>SMOOTH</interpolate>
			<points>
				<point>0,0</point>
				<point>1,1</point>
			</points>
		</load_controller>
		<load_controller id="52" type="loadcurve">
			<interpolate>SMOOTH</interpolate>
			<points>
				<point>0,0</point>
				<point>1,1</point>
			</points>
		</load_controller>
		<load_controller id="53" type="loadcurve">
			<interpolate>SMOOTH</interpolate>
			<points>
				<point>0,0</point>
				<point>1,1</point>
			</points>
		</load_controller>
		<load_controller id="54" type="loadcurve">
			<interpolate>SMOOTH</interpolate>
			<points>
				<point>0,0</point>
				<point>1,1</point>
			</points>
		</load_controller>
		<load_controller id="55" type="loadcurve">
			<interpolate>SMOOTH</interpolate>
			<points>
				<point>0,0</point>
				<point>1,1</point>
			</points>
		</load_controller>
		<load_controller id="56" type="loadcurve">
			<interpolate>SMOOTH</interpolate>
			<points>
				<point>0,0</point>
				<point>1,1</point>
			</points>
		</load_controller>
		<load_controller id="57" type="loadcurve">
			<interpolate>SMOOTH</interpolate>
			<points>
				<point>0,0</point>
				<point>1,1</point>
			</points>
		</load_controller>
		<load_controller id="58" type="loadcurve">
			<interpolate>SMOOTH</interpolate>
			<points>
				<point>0,0</point>
				<point>1,1</point>
			</points>
		</load_controller>
		<load_controller id="59" type="loadcurve">
			<interpolate>SMOOTH</interpolate>
			<points>
				<point>0,0</point>
				<point>1,1</point>
			</points>
		</load_controller>
		<load_controller id="60" type="loadcurve">
			<interpolate>SMOOTH</interpolate>
			<points>
				<point>0,0</point>
				<point>1,1</point>
			</points>
		</load_controller>
		<load_controller id="61" type="loadcurve">
			<interpolate>SMOOTH</interpolate>
			<points>
				<point>0,0</point>
				<point>1,1</point>
			</points>
		</load_controller>
		<load_controller id="62" type="loadcurve">
			<interpolate>SMOOTH</interpolate>
			<points>
				<point>0,0</point>
				<point>1,1</point>
			</points>
		</load_controller>
		<load_controller id="63" type="loadcurve">
			<interpolate>SMOOTH</interpolate>
			<points>
				<point>0,0</point>
				<point>1,1</point>
			</points>
		</load_controller>
		<load_controller id="64" type="loadcurve">
			<interpolate>SMOOTH</interpolate>
			<points>
				<point>0,0</point>
				<point>1,1</point>
			</points>
		</load_controller>
	</LoadData>
	<Output>
		<plotfile type="febio">
			<var type="displacement"/>
			<var type="relative volume"/>
			<var type="stress"/>
		</plotfile>
		<logfile>
			<node_data file="t115_ctrl_tram_64_feb_xyz.txt" format='%t%t%t<node id="%i">%g,%g,%g</node>' data="x;y;z"></node_data>
			<node_data file="t115_ctrl_tram_64_xy_displacement.txt" format='%t%t%t<node id="%i">%g,%g,%g' data="ux;uy;uz"></node_data>
			<element_data file="t115_ctrl_tram_64_p1_strain.txt" data="E1"></element_data>
		</logfile>
	</Output>
</febio_spec>
